/*--------------------------------*- C++ -*----------------------------------*\
  =========                 |
  \\      /  F ield         | OpenFOAM: The Open Source CFD Toolbox
   \\    /   O peration     | Website:  https://openfoam.org
    \\  /    A nd           | Version:  11
     \\/     M anipulation  |
\*---------------------------------------------------------------------------*/
FoamFile
{
    format      ascii;
    class       IOPosition;
    location    "0/lagrangian/cloud";
    object      positions;
}
// * * * * * * * * * * * * * * * * * * * * * * * * * * * * * * * * * * * * * //

10
(
(0.153726364486 0.0331631177105 0.389973574381 0.423136943422) 1511 3390 1
(0.537629700592 0.22356936199 0.167547281219 0.0712536561994) 1773 3913 2
(0.191141007468 0.0923177064396 0.404449327259 0.312091958833) 1850 4051 1
(0.171083725989 0.260222001001 0.414330114353 0.154364158657) 2002 4258 1
(0.735072743504 0.0838433897153 0.0492942355359 0.131789631245) 2336 4774 1
(0.344825162552 0.0640854062513 0.261815263364 0.329274167833) 1511 3392 1
(0.745463342583 0.12159847437 0.124736759333 0.00820142371353) 1773 3913 2
(0.336520142435 0.339596168613 0.0734323970815 0.25045129187) 1850 3454 2
(0.0228477017954 0.186975000426 0.488484162124 0.301693135654) 2002 4258 1
(0.30886994442 0.154210931156 0.191109808433 0.345809315992) 2336 4772 1
)


// ************************************************************************* //
