/*--------------------------------*- C++ -*----------------------------------*\
  =========                 |
  \\      /  F ield         | OpenFOAM: The Open Source CFD Toolbox
   \\    /   O peration     | Website:  https://openfoam.org
    \\  /    A nd           | Version:  11
     \\/     M anipulation  |
\*---------------------------------------------------------------------------*/
FoamFile
{
    format      ascii;
    class       vectorField;
    location    "0/lagrangian/cloud";
    object      U;
}
// * * * * * * * * * * * * * * * * * * * * * * * * * * * * * * * * * * * * * //

10((0 0 -9.80609051732e-08) (0 0 -9.80609051739e-08) (0 0 -9.80609105248e-08) (0 0 -9.80608816199e-08) (0 0 -9.80608695492e-08) (0 0 -9.80609051731e-08) (0 0 -9.80609051739e-08) (0 0 -9.80609105248e-08) (0 0 -9.80608816198e-08) (0 0 -9.80608695492e-08))

// ************************************************************************* //
